
OS:Version,
  {9676556c-ca59-489f-a13d-b946646b57c6}, !- Handle
  3.4.0;                                  !- Version Identifier

OS:Site,
  {fee41637-4d46-4fd0-963e-ce0639384ea0}, !- Handle
  Greenville-Spartanburg Intl AP,         !- Name
  34.9,                                   !- Latitude {deg}
  -82.217,                                !- Longitude {deg}
  -5,                                     !- Time Zone {hr}
  292,                                    !- Elevation {m}
  ;                                       !- Terrain

OS:YearDescription,
  {48018b57-405b-444c-a5fe-12098e26ef15}, !- Handle
  ,                                       !- Calendar Year
  Sunday,                                 !- Day of Week for Start Day
  ;                                       !- Is Leap Year

OS:ClimateZones,
  {a4c95656-e099-45da-83ac-9f0df8a95945}, !- Handle
  ASHRAE,                                 !- Climate Zone Institution Name 1
  ANSI/ASHRAE Standard 169,               !- Climate Zone Document Name 1
  2006,                                   !- Climate Zone Document Year 1
  3A,                                     !- Climate Zone Value 1
  CEC,                                    !- Climate Zone Institution Name 2
  California Climate Zone Descriptions,   !- Climate Zone Document Name 2
  1995,                                   !- Climate Zone Document Year 2
  ;                                       !- Climate Zone Value 2

OS:Building,
  {62d4365d-8e79-4a60-9c24-d0a7f1a3b63b}, !- Handle
  Building 1,                             !- Name
  ,                                       !- Building Sector Type
  71.5,                                   !- North Axis {deg}
  ,                                       !- Nominal Floor to Floor Height {m}
  ,                                       !- Space Type Name
  ,                                       !- Default Construction Set Name
  ;                                       !- Default Schedule Set Name

OS:Facility,
  {f8bfaafb-469d-4e30-9061-fbc06313ed98}; !- Handle

OS:SimulationControl,
  {1fe9b090-6d39-4ec3-afb7-6b9eabad9f87}, !- Handle
  Yes,                                    !- Do Zone Sizing Calculation
  Yes,                                    !- Do System Sizing Calculation
  Yes,                                    !- Do Plant Sizing Calculation
  Yes,                                    !- Run Simulation for Sizing Periods
  Yes,                                    !- Run Simulation for Weather File Run Periods
  ,                                       !- Loads Convergence Tolerance Value {W}
  ,                                       !- Temperature Convergence Tolerance Value {deltaC}
  ,                                       !- Solar Distribution
  ,                                       !- Maximum Number of Warmup Days
  ,                                       !- Minimum Number of Warmup Days
  No;                                     !- Do HVAC Sizing Simulation for Sizing Periods

OS:Sizing:Parameters,
  {2e641812-0ed6-4e96-9fa0-3e9ab0371332}, !- Handle
  1.25,                                   !- Heating Sizing Factor
  1.15;                                   !- Cooling Sizing Factor

OS:Timestep,
  {ff3c7b7b-35f5-441d-9c24-0cb770911b1b}, !- Handle
  6;                                      !- Number of Timesteps per Hour

OS:ShadowCalculation,
  {1dfb6c85-ca72-4394-a773-0043ccb3703f}, !- Handle
  PolygonClipping,                        !- Shading Calculation Method
  ,                                       !- Shading Calculation Update Frequency Method
  20,                                     !- Shading Calculation Update Frequency
  15000,                                  !- Maximum Figures in Shadow Overlap Calculations
  ,                                       !- Polygon Clipping Algorithm
  512,                                    !- Pixel Counting Resolution
  ,                                       !- Sky Diffuse Modeling Algorithm
  No,                                     !- Output External Shading Calculation Results
  No,                                     !- Disable Self-Shading Within Shading Zone Groups
  No;                                     !- Disable Self-Shading From Shading Zone Groups to Other Zones

OS:HeatBalanceAlgorithm,
  {9503bb93-5ae0-49a9-9acf-cdc61cb5cd11}, !- Handle
  ConductionTransferFunction,             !- Algorithm
  200;                                    !- Surface Temperature Upper Limit {C}

OS:RunPeriod,
  {0b1c288b-d2d3-47ce-a601-842ea623963d}, !- Handle
  Run Period 1,                           !- Name
  1,                                      !- Begin Month
  1,                                      !- Begin Day of Month
  12,                                     !- End Month
  31,                                     !- End Day of Month
  No,                                     !- Use Weather File Holidays and Special Days
  No,                                     !- Use Weather File Daylight Saving Period
  ,                                       !- Apply Weekend Holiday Rule
  ,                                       !- Use Weather File Rain Indicators
  ,                                       !- Use Weather File Snow Indicators
  ;                                       !- Number of Times Runperiod to be Repeated

OS:LifeCycleCost:Parameters,
  {f6aeddbe-8ead-4140-a822-b2648b94eb37}, !- Handle
  FEMP,                                   !- Analysis Type
  ,                                       !- Discounting Convention
  ,                                       !- Inflation Approach
  ,                                       !- Real Discount Rate
  ,                                       !- Nominal Discount Rate
  ,                                       !- Inflation
  ,                                       !- Base Date Month
  ,                                       !- Base Date Year
  ,                                       !- Service Date Month
  ,                                       !- Service Date Year
  ,                                       !- Length of Study Period in Years
  ,                                       !- Tax Rate
  ,                                       !- Depreciation Method
  Yes;                                    !- Use NIST Fuel Escalation Rates

OS:DefaultScheduleSet,
  {5a866fef-13cc-4a4a-b9d6-1e938dd82903}, !- Handle
  189.1-2009 - Office - ClosedOffice - CZ1-3 Schedule Set, !- Name
  ,                                       !- Hours of Operation Schedule Name
  {a6210675-5ef9-45bc-b62d-cbf7eedd8175}, !- Number of People Schedule Name
  {604ba7f7-425c-4235-b9cc-e186c2d71939}, !- People Activity Level Schedule Name
  {8cc545db-2e1a-4ff9-bd8c-9b074b5bac0f}, !- Lighting Schedule Name
  {5c9ae336-c0ff-4f91-b4c3-c84e3349aa38}, !- Electric Equipment Schedule Name
  ,                                       !- Gas Equipment Schedule Name
  ,                                       !- Hot Water Equipment Schedule Name
  {923e4083-ed38-4b6a-9d98-026e7684e5d2}, !- Infiltration Schedule Name
  ,                                       !- Steam Equipment Schedule Name
  ;                                       !- Other Equipment Schedule Name

OS:Schedule:Ruleset,
  {a6210675-5ef9-45bc-b62d-cbf7eedd8175}, ! Handle
  Office Work Occ,                        ! Name
  {bfa9f724-45b4-4f47-82fb-89328cf69f5c}, ! Schedule Type Limits Name
  {1ba7a3fa-2f24-4687-a1cc-3f9bfb5e6866}, ! Default Day Schedule Name
  {4ae16fdd-1ccd-4da9-b7e6-44d169ed8428}, ! Summer Design Day Schedule Name
  {71901d97-797b-409e-a8fd-12a218b9623e}; ! Winter Design Day Schedule Name

OS:Schedule:Day,
  {1ba7a3fa-2f24-4687-a1cc-3f9bfb5e6866}, ! Handle
  Office Bldg Occ Default Schedule,       ! Name
  {bfa9f724-45b4-4f47-82fb-89328cf69f5c}, ! Schedule Type Limits Name
  ,                                       ! Interpolate to Timestep
  6,                                      !- Hour 1
  0,                                      !- Minute 1
  0,                                      !- Value Until Time 1
  7,                                      !- Hour 2
  0,                                      !- Minute 2
  0.100000001490116,                      !- Value Until Time 2
  8,                                      !- Hour 3
  0,                                      !- Minute 3
  0.200000002980232,                      !- Value Until Time 3
  12,                                     !- Hour 4
  0,                                      !- Minute 4
  0.850000023841858,                      !- Value Until Time 4
  13,                                     !- Hour 5
  0,                                      !- Minute 5
  0.5,                                    !- Value Until Time 5
  17,                                     !- Hour 6
  0,                                      !- Minute 6
  0.850000023841858,                      !- Value Until Time 6
  18,                                     !- Hour 7
  0,                                      !- Minute 7
  0.699999988079071,                      !- Value Until Time 7
  20,                                     !- Hour 8
  0,                                      !- Minute 8
  0.400000005960464,                      !- Value Until Time 8
  22,                                     !- Hour 9
  0,                                      !- Minute 9
  0.100000001490116,                      !- Value Until Time 9
  24,                                     !- Hour 10
  0,                                      !- Minute 10
  0.0500000007450581;                     !- Value Until Time 10

OS:Schedule:Day,
  {4ae16fdd-1ccd-4da9-b7e6-44d169ed8428}, ! Handle
  Office Bldg Occ Summer Design Day,      ! Name
  {bfa9f724-45b4-4f47-82fb-89328cf69f5c}, ! Schedule Type Limits Name
  ,                                       ! Interpolate to Timestep
  6,                                      ! Hour 1
  0,                                      ! Minute 1
  0,                                      ! Value Until Time 1
  22,                                     ! Hour 2
  0,                                      ! Minute 2
  1,                                      ! Value Until Time 2
  24,                                     ! Hour 3
  0,                                      ! Minute 3
  0.050000000000000003;                   ! Value Until Time 3

OS:Schedule:Day,
  {71901d97-797b-409e-a8fd-12a218b9623e}, ! Handle
  Office Bldg Occ Winter Design Day,      ! Name
  {bfa9f724-45b4-4f47-82fb-89328cf69f5c}, ! Schedule Type Limits Name
  ,                                       ! Interpolate to Timestep
  24,                                     ! Hour 1
  0,                                      ! Minute 1
  0;                                      ! Value Until Time 1

OS:Schedule:Rule,
  {7ecb94c7-3ad6-4d61-a33e-64c8f57d328c}, !- Handle
  Office Work Occ Rule 1,                 !- Name
  {a6210675-5ef9-45bc-b62d-cbf7eedd8175}, !- Schedule Ruleset Name
  0,                                      !- Rule Order
  {a862e45b-397d-40de-82c8-0a83d6037f1d}, !- Day Schedule Name
  Yes,                                    !- Apply Sunday
  No,                                     !- Apply Monday
  No,                                     !- Apply Tuesday
  No,                                     !- Apply Wednesday
  No,                                     !- Apply Thursday
  No,                                     !- Apply Friday
  No,                                     !- Apply Saturday
  DateRange,                              !- Date Specification Type
  1,                                      !- Start Month
  1,                                      !- Start Day
  12,                                     !- End Month
  31;                                     !- End Day

OS:Schedule:Rule,
  {3c0fd0d7-7d6c-484e-8902-1d3a361d9c9b}, !- Handle
  Office Work Occ Rule 2,                 !- Name
  {a6210675-5ef9-45bc-b62d-cbf7eedd8175}, !- Schedule Ruleset Name
  1,                                      !- Rule Order
  {258c017a-8e77-48df-94d7-039e1c9a2562}, !- Day Schedule Name
  No,                                     !- Apply Sunday
  No,                                     !- Apply Monday
  No,                                     !- Apply Tuesday
  No,                                     !- Apply Wednesday
  No,                                     !- Apply Thursday
  No,                                     !- Apply Friday
  Yes,                                    !- Apply Saturday
  DateRange,                              !- Date Specification Type
  1,                                      !- Start Month
  1,                                      !- Start Day
  12,                                     !- End Month
  31;                                     !- End Day

OS:Schedule:Day,
  {a862e45b-397d-40de-82c8-0a83d6037f1d}, ! Handle
  Office Bldg Occ Rule 1 Day Schedule,    ! Name
  {bfa9f724-45b4-4f47-82fb-89328cf69f5c}, ! Schedule Type Limits Name
  ,                                       ! Interpolate to Timestep
  24,                                     ! Hour 1
  0,                                      ! Minute 1
  0;                                      ! Value Until Time 1

OS:Schedule:Day,
  {258c017a-8e77-48df-94d7-039e1c9a2562}, ! Handle
  Office Bldg Occ Rule 2 Day Schedule,    ! Name
  {bfa9f724-45b4-4f47-82fb-89328cf69f5c}, ! Schedule Type Limits Name
  ,                                       ! Interpolate to Timestep
  6,                                      !- Hour 1
  0,                                      !- Minute 1
  0,                                      !- Value Until Time 1
  8,                                      !- Hour 2
  0,                                      !- Minute 2
  0.100000001490116,                      !- Value Until Time 2
  14,                                     !- Hour 3
  0,                                      !- Minute 3
  0.400000005960464,                      !- Value Until Time 3
  17,                                     !- Hour 4
  0,                                      !- Minute 4
  0.100000001490116,                      !- Value Until Time 4
  24,                                     !- Hour 5
  0,                                      !- Minute 5
  0;                                      !- Value Until Time 5

OS:Schedule:Ruleset,
  {604ba7f7-425c-4235-b9cc-e186c2d71939}, ! Handle
  Office Activity,                        ! Name
  {333a796d-1f51-4b99-9f9f-8ab2327f4462}, ! Schedule Type Limits Name
  {17207461-b0dd-44b7-94f2-c4e88dd943ec}, ! Default Day Schedule Name
  {64f62a7b-9873-4a17-bd42-1c6778c30a64}, ! Summer Design Day Schedule Name
  {09f956c0-c66c-47a7-90ca-95431d9dd894}; ! Winter Design Day Schedule Name

OS:Schedule:Day,
  {17207461-b0dd-44b7-94f2-c4e88dd943ec}, ! Handle
  Office Activity Default Schedule,       ! Name
  {333a796d-1f51-4b99-9f9f-8ab2327f4462}, ! Schedule Type Limits Name
  ,                                       ! Interpolate to Timestep
  24,                                     !- Hour 1
  0,                                      !- Minute 1
  132;                                    !- Value Until Time 1

OS:Schedule:Day,
  {64f62a7b-9873-4a17-bd42-1c6778c30a64}, ! Handle
  Office Activity Summer Design Day,      ! Name
  {333a796d-1f51-4b99-9f9f-8ab2327f4462}, ! Schedule Type Limits Name
  ,                                       ! Interpolate to Timestep
  24,                                     !- Hour 1
  0,                                      !- Minute 1
  132;                                    !- Value Until Time 1

OS:Schedule:Day,
  {09f956c0-c66c-47a7-90ca-95431d9dd894}, ! Handle
  Office Activity Winter Design Day,      ! Name
  {333a796d-1f51-4b99-9f9f-8ab2327f4462}, ! Schedule Type Limits Name
  ,                                       ! Interpolate to Timestep
  24,                                     !- Hour 1
  0,                                      !- Minute 1
  132;                                    !- Value Until Time 1

OS:Schedule:Ruleset,
  {8cc545db-2e1a-4ff9-bd8c-9b074b5bac0f}, ! Handle
  Office Bldg Light,                      ! Name
  {bfa9f724-45b4-4f47-82fb-89328cf69f5c}, ! Schedule Type Limits Name
  {67278360-45d1-4c4b-8c80-1abaf4781bea}, ! Default Day Schedule Name
  {c1add6b8-6a6f-451d-bdcc-a95ca0314bf0}, ! Summer Design Day Schedule Name
  {420bdc0a-1bfe-4d30-906c-c6e9cde6e5a1}; ! Winter Design Day Schedule Name

OS:Schedule:Day,
  {67278360-45d1-4c4b-8c80-1abaf4781bea}, ! Handle
  Office Bldg Light Default Schedule,     ! Name
  {bfa9f724-45b4-4f47-82fb-89328cf69f5c}, ! Schedule Type Limits Name
  ,                                       ! Interpolate to Timestep
  5,                                      !- Hour 1
  0,                                      !- Minute 1
  0.05,                                   !- Value Until Time 1
  7,                                      !- Hour 2
  0,                                      !- Minute 2
  0.1,                                    !- Value Until Time 2
  8,                                      !- Hour 3
  0,                                      !- Minute 3
  0.3,                                    !- Value Until Time 3
  17,                                     !- Hour 4
  0,                                      !- Minute 4
  0.9,                                    !- Value Until Time 4
  18,                                     !- Hour 5
  0,                                      !- Minute 5
  0.7,                                    !- Value Until Time 5
  20,                                     !- Hour 6
  0,                                      !- Minute 6
  0.5,                                    !- Value Until Time 6
  22,                                     !- Hour 7
  0,                                      !- Minute 7
  0.3,                                    !- Value Until Time 7
  23,                                     !- Hour 8
  0,                                      !- Minute 8
  0.1,                                    !- Value Until Time 8
  24,                                     !- Hour 9
  0,                                      !- Minute 9
  0.05;                                   !- Value Until Time 9

OS:Schedule:Day,
  {c1add6b8-6a6f-451d-bdcc-a95ca0314bf0}, ! Handle
  Office Bldg Light Summer Design Day,    ! Name
  {bfa9f724-45b4-4f47-82fb-89328cf69f5c}, ! Schedule Type Limits Name
  ,                                       ! Interpolate to Timestep
  24,                                     ! Hour 1
  0,                                      ! Minute 1
  1;                                      ! Value Until Time 1

OS:Schedule:Day,
  {420bdc0a-1bfe-4d30-906c-c6e9cde6e5a1}, ! Handle
  Office Bldg Light Winter Design Day,    ! Name
  {bfa9f724-45b4-4f47-82fb-89328cf69f5c}, ! Schedule Type Limits Name
  ,                                       ! Interpolate to Timestep
  24,                                     ! Hour 1
  0,                                      ! Minute 1
  0;                                      ! Value Until Time 1

OS:Schedule:Rule,
  {235ce8b3-0288-4624-808e-382bb41e32f8}, !- Handle
  Office Bldg Light Rule 1,               !- Name
  {8cc545db-2e1a-4ff9-bd8c-9b074b5bac0f}, !- Schedule Ruleset Name
  0,                                      !- Rule Order
  {95f17c3b-ad4d-455d-9053-b12bff5dc304}, !- Day Schedule Name
  Yes,                                    !- Apply Sunday
  No,                                     !- Apply Monday
  No,                                     !- Apply Tuesday
  No,                                     !- Apply Wednesday
  No,                                     !- Apply Thursday
  No,                                     !- Apply Friday
  No,                                     !- Apply Saturday
  DateRange,                              !- Date Specification Type
  1,                                      !- Start Month
  1,                                      !- Start Day
  12,                                     !- End Month
  31;                                     !- End Day

OS:Schedule:Rule,
  {21ca91ef-2e95-411f-a4b0-ef367b7d6383}, !- Handle
  Office Bldg Light Rule 2,               !- Name
  {8cc545db-2e1a-4ff9-bd8c-9b074b5bac0f}, !- Schedule Ruleset Name
  1,                                      !- Rule Order
  {bd5b10cf-ccad-46e0-aa18-311543fc3752}, !- Day Schedule Name
  No,                                     !- Apply Sunday
  No,                                     !- Apply Monday
  No,                                     !- Apply Tuesday
  No,                                     !- Apply Wednesday
  No,                                     !- Apply Thursday
  No,                                     !- Apply Friday
  Yes,                                    !- Apply Saturday
  DateRange,                              !- Date Specification Type
  1,                                      !- Start Month
  1,                                      !- Start Day
  12,                                     !- End Month
  31;                                     !- End Day

OS:Schedule:Day,
  {95f17c3b-ad4d-455d-9053-b12bff5dc304}, ! Handle
  Office Bldg Light Rule 1 Day Schedule,  ! Name
  {bfa9f724-45b4-4f47-82fb-89328cf69f5c}, ! Schedule Type Limits Name
  ,                                       ! Interpolate to Timestep
  24,                                     ! Hour 1
  0,                                      ! Minute 1
  0.050000000000000003;                   ! Value Until Time 1

OS:Schedule:Day,
  {bd5b10cf-ccad-46e0-aa18-311543fc3752}, ! Handle
  Office Bldg Light Rule 2 Day Schedule,  ! Name
  {bfa9f724-45b4-4f47-82fb-89328cf69f5c}, ! Schedule Type Limits Name
  ,                                       ! Interpolate to Timestep
  6,                                      ! Hour 1
  0,                                      ! Minute 1
  0.050000000000000003,                   ! Value Until Time 1
  8,                                      ! Hour 2
  0,                                      ! Minute 2
  0.10000000000000001,                    ! Value Until Time 2
  14,                                     ! Hour 3
  0,                                      ! Minute 3
  0.5,                                    ! Value Until Time 3
  17,                                     ! Hour 4
  0,                                      ! Minute 4
  0.14999999999999999,                    ! Value Until Time 4
  24,                                     ! Hour 5
  0,                                      ! Minute 5
  0.050000000000000003;                   ! Value Until Time 5

OS:Schedule:Ruleset,
  {5c9ae336-c0ff-4f91-b4c3-c84e3349aa38}, ! Handle
  Office Bldg Equip,                      ! Name
  {bfa9f724-45b4-4f47-82fb-89328cf69f5c}, ! Schedule Type Limits Name
  {e083fb2d-bc9c-4f08-8731-e6cdf9b5ce38}, ! Default Day Schedule Name
  {7484eab8-ff53-4458-bc84-020928130220}, ! Summer Design Day Schedule Name
  {4d002951-0540-4217-9427-15cdcdb19b30}; ! Winter Design Day Schedule Name

OS:Schedule:Day,
  {e083fb2d-bc9c-4f08-8731-e6cdf9b5ce38}, ! Handle
  Office Bldg Equip Default Schedule,     ! Name
  {bfa9f724-45b4-4f47-82fb-89328cf69f5c}, ! Schedule Type Limits Name
  ,                                       ! Interpolate to Timestep
  8,                                      !- Hour 1
  0,                                      !- Minute 1
  0.4,                                    !- Value Until Time 1
  12,                                     !- Hour 2
  0,                                      !- Minute 2
  0.9,                                    !- Value Until Time 2
  13,                                     !- Hour 3
  0,                                      !- Minute 3
  0.8,                                    !- Value Until Time 3
  17,                                     !- Hour 4
  0,                                      !- Minute 4
  0.9,                                    !- Value Until Time 4
  18,                                     !- Hour 5
  0,                                      !- Minute 5
  0.8,                                    !- Value Until Time 5
  20,                                     !- Hour 6
  0,                                      !- Minute 6
  0.6,                                    !- Value Until Time 6
  22,                                     !- Hour 7
  0,                                      !- Minute 7
  0.5,                                    !- Value Until Time 7
  24,                                     !- Hour 8
  0,                                      !- Minute 8
  0.4;                                    !- Value Until Time 8

OS:Schedule:Day,
  {7484eab8-ff53-4458-bc84-020928130220}, ! Handle
  Office Bldg Equip Summer Design Day,    ! Name
  {bfa9f724-45b4-4f47-82fb-89328cf69f5c}, ! Schedule Type Limits Name
  ,                                       ! Interpolate to Timestep
  24,                                     ! Hour 1
  0,                                      ! Minute 1
  1;                                      ! Value Until Time 1

OS:Schedule:Day,
  {4d002951-0540-4217-9427-15cdcdb19b30}, ! Handle
  Office Bldg Equip Winter Design Day,    ! Name
  {bfa9f724-45b4-4f47-82fb-89328cf69f5c}, ! Schedule Type Limits Name
  ,                                       ! Interpolate to Timestep
  24,                                     ! Hour 1
  0,                                      ! Minute 1
  0;                                      ! Value Until Time 1

OS:Schedule:Rule,
  {b14de2a5-553e-492e-a373-213369479125}, !- Handle
  Office Bldg Equip Rule 1,               !- Name
  {5c9ae336-c0ff-4f91-b4c3-c84e3349aa38}, !- Schedule Ruleset Name
  0,                                      !- Rule Order
  {ec1485bc-0ec3-46ae-a3dd-eaffd9bb50b5}, !- Day Schedule Name
  Yes,                                    !- Apply Sunday
  No,                                     !- Apply Monday
  No,                                     !- Apply Tuesday
  No,                                     !- Apply Wednesday
  No,                                     !- Apply Thursday
  No,                                     !- Apply Friday
  No,                                     !- Apply Saturday
  DateRange,                              !- Date Specification Type
  1,                                      !- Start Month
  1,                                      !- Start Day
  12,                                     !- End Month
  31;                                     !- End Day

OS:Schedule:Rule,
  {c0d58d96-9bb1-4467-85e2-f5453775dcb9}, !- Handle
  Office Bldg Equip Rule 2,               !- Name
  {5c9ae336-c0ff-4f91-b4c3-c84e3349aa38}, !- Schedule Ruleset Name
  1,                                      !- Rule Order
  {5f9b71df-be53-4c58-a055-68efad026fc2}, !- Day Schedule Name
  No,                                     !- Apply Sunday
  No,                                     !- Apply Monday
  No,                                     !- Apply Tuesday
  No,                                     !- Apply Wednesday
  No,                                     !- Apply Thursday
  No,                                     !- Apply Friday
  Yes,                                    !- Apply Saturday
  DateRange,                              !- Date Specification Type
  1,                                      !- Start Month
  1,                                      !- Start Day
  12,                                     !- End Month
  31;                                     !- End Day

OS:Schedule:Day,
  {ec1485bc-0ec3-46ae-a3dd-eaffd9bb50b5}, ! Handle
  Office Bldg Equip Rule 1 Day Schedule,  ! Name
  {bfa9f724-45b4-4f47-82fb-89328cf69f5c}, ! Schedule Type Limits Name
  ,                                       ! Interpolate to Timestep
  24,                                     ! Hour 1
  0,                                      ! Minute 1
  0.29999999999999999;                    ! Value Until Time 1

OS:Schedule:Day,
  {5f9b71df-be53-4c58-a055-68efad026fc2}, ! Handle
  Office Bldg Equip Rule 2 Day Schedule,  ! Name
  {bfa9f724-45b4-4f47-82fb-89328cf69f5c}, ! Schedule Type Limits Name
  ,                                       ! Interpolate to Timestep
  6,                                      ! Hour 1
  0,                                      ! Minute 1
  0.29999999999999999,                    ! Value Until Time 1
  8,                                      ! Hour 2
  0,                                      ! Minute 2
  0.40000000000000002,                    ! Value Until Time 2
  14,                                     ! Hour 3
  0,                                      ! Minute 3
  0.5,                                    ! Value Until Time 3
  17,                                     ! Hour 4
  0,                                      ! Minute 4
  0.34999999999999998,                    ! Value Until Time 4
  24,                                     ! Hour 5
  0,                                      ! Minute 5
  0.29999999999999999;                    ! Value Until Time 5

OS:Schedule:Ruleset,
  {923e4083-ed38-4b6a-9d98-026e7684e5d2}, ! Handle
  Office Infil Quarter On,                ! Name
  {bfa9f724-45b4-4f47-82fb-89328cf69f5c}, ! Schedule Type Limits Name
  {591da0fa-ade5-4e36-80a6-e95dc2870506}, ! Default Day Schedule Name
  {0237213d-ea85-47ca-86c3-9a869d0272ee}, ! Summer Design Day Schedule Name
  {ea916ba8-0215-47f4-9d06-3f82546d00db}; ! Winter Design Day Schedule Name

OS:Schedule:Day,